Version 4
SHEET 1 2248 680
WIRE 368 -592 336 -592
WIRE 480 -592 448 -592
WIRE 800 -592 768 -592
WIRE 912 -592 880 -592
WIRE 368 -432 336 -432
WIRE 480 -432 448 -432
WIRE 800 -432 768 -432
WIRE 912 -432 880 -432
WIRE 544 -144 224 -144
WIRE 960 -144 544 -144
WIRE 544 -112 544 -144
WIRE 960 -112 960 -144
WIRE 768 16 752 16
WIRE 912 16 832 16
WIRE 544 32 544 -16
WIRE 544 32 528 32
WIRE 960 32 960 -16
WIRE 960 32 944 32
WIRE 224 48 224 -144
WIRE 544 80 544 32
WIRE 624 80 544 80
WIRE 640 80 624 80
WIRE 752 80 752 16
WIRE 752 80 720 80
WIRE 768 80 752 80
WIRE 896 80 896 64
WIRE 896 80 848 80
WIRE 912 80 912 16
WIRE 912 80 896 80
WIRE 960 80 960 32
WIRE 960 80 912 80
WIRE 1200 80 960 80
WIRE 624 160 624 80
WIRE 704 160 624 160
WIRE 896 160 896 80
WIRE 896 160 768 160
WIRE 544 176 544 80
WIRE 960 176 960 80
WIRE 1200 208 1200 80
WIRE 544 288 544 272
WIRE 544 288 528 288
WIRE 960 288 960 272
WIRE 960 288 944 288
WIRE 224 304 224 128
WIRE 544 304 544 288
WIRE 544 304 224 304
WIRE 960 304 960 288
WIRE 960 304 544 304
WIRE 224 336 224 304
WIRE 752 400 752 80
WIRE 912 400 752 400
WIRE 1072 400 992 400
WIRE 1152 416 1152 400
WIRE 1200 416 1200 288
WIRE 1200 416 1152 416
FLAG 224 336 0
FLAG 496 -32 V_G1
IOPIN 496 -32 In
FLAG 496 256 V_G2
IOPIN 496 256 In
FLAG 912 -32 V_G3
IOPIN 912 -32 In
FLAG 912 256 V_G4
IOPIN 912 256 In
FLAG 944 32 V_S3
IOPIN 944 32 In
FLAG 528 32 V_S1
IOPIN 528 32 In
FLAG 528 288 V_S2
IOPIN 528 288 In
FLAG 944 288 V_S4
IOPIN 944 288 In
FLAG 912 -592 V_G1
IOPIN 912 -592 Out
FLAG 768 -592 V_S1
IOPIN 768 -592 Out
FLAG 912 -432 V_G2
IOPIN 912 -432 Out
FLAG 768 -432 V_S2
IOPIN 768 -432 Out
FLAG 480 -592 V_G3
IOPIN 480 -592 Out
FLAG 336 -592 V_S3
IOPIN 336 -592 Out
FLAG 480 -432 V_G4
IOPIN 480 -432 Out
FLAG 336 -432 V_S4
IOPIN 336 -432 Out
SYMBOL voltage 224 32 R0
WINDOW 3 -458 10 Left 2
WINDOW 123 0 0 Left 0
WINDOW 39 0 0 Left 0
SYMATTR Value PWL file=Rectifier_Single_Phase.txt
SYMATTR InstName V_DC
SYMBOL nmos 496 -112 R0
SYMATTR InstName M1
SYMATTR Value STW11NM80
SYMBOL nmos 496 176 R0
SYMATTR InstName M2
SYMATTR Value STW11NM80
SYMBOL nmos 912 -112 R0
SYMATTR InstName M3
SYMATTR Value STW11NM80
SYMBOL nmos 912 176 R0
SYMATTR InstName M4
SYMATTR Value STW11NM80
SYMBOL ind 624 96 R270
WINDOW 0 32 56 VTop 2
WINDOW 3 5 56 VBottom 2
SYMATTR InstName LL
SYMATTR Value 800µ
SYMBOL voltage 896 -432 R90
WINDOW 0 37 30 VLeft 2
WINDOW 3 -54 270 VLeft 2
WINDOW 123 0 0 Left 0
WINDOW 39 0 0 Left 0
SYMATTR InstName V1
SYMATTR Value PULSE(0 10 0.005m 1p 1p 0.005m 0.01m)
SYMBOL voltage 896 -592 R90
WINDOW 0 37 30 VLeft 2
WINDOW 3 -54 270 VLeft 2
WINDOW 123 0 0 Left 0
WINDOW 39 0 0 Left 0
SYMATTR InstName V2
SYMATTR Value PULSE(0 10 0 1p 1p 0.005m 0.01m)
SYMBOL voltage 464 -432 R90
WINDOW 0 37 30 VLeft 2
WINDOW 3 -54 270 VLeft 2
WINDOW 123 0 0 Left 0
WINDOW 39 0 0 Left 0
SYMATTR InstName V3
SYMATTR Value 10
SYMBOL voltage 464 -592 R90
WINDOW 0 37 30 VLeft 2
WINDOW 3 -54 270 VLeft 2
WINDOW 123 0 0 Left 0
WINDOW 39 0 0 Left 0
SYMATTR InstName V4
SYMATTR Value 0
SYMBOL cap 768 144 R90
WINDOW 0 0 32 VBottom 2
WINDOW 3 32 32 VTop 2
SYMATTR InstName C1
SYMATTR Value 100n
SYMBOL cap 768 0 M90
WINDOW 0 0 32 VBottom 2
WINDOW 3 32 32 VTop 2
SYMATTR InstName C2
SYMATTR Value 100µ
SYMBOL res 1168 384 R90
WINDOW 0 0 56 VBottom 2
WINDOW 3 32 56 VTop 2
SYMATTR InstName R1
SYMATTR Value 1
SYMBOL ind 1184 192 R0
SYMATTR InstName L1
SYMATTR Value 1m
SYMBOL voltage 1008 400 R90
WINDOW 0 -32 56 VBottom 2
WINDOW 3 32 56 VTop 2
WINDOW 123 0 0 Left 0
WINDOW 39 0 0 Left 0
SYMATTR InstName V5
SYMATTR Value 200
TEXT -240 368 Left 2 !.tran 0 200m 0
