Version 4
SHEET 1 1032 680
WIRE 160 64 -16 64
WIRE 352 64 240 64
WIRE 432 64 352 64
WIRE 512 64 432 64
WIRE 880 64 832 64
WIRE 240 80 240 64
WIRE 352 80 352 64
WIRE -16 128 -16 64
WIRE 880 128 880 64
WIRE 432 144 432 64
WIRE 160 160 160 64
WIRE 240 160 240 144
WIRE 240 160 160 160
WIRE 352 176 352 144
WIRE 352 176 160 176
WIRE 240 192 240 160
WIRE 352 192 352 176
WIRE -16 272 -16 208
WIRE 160 272 160 176
WIRE 160 272 -16 272
WIRE 240 272 240 256
WIRE 352 272 352 256
WIRE 352 272 240 272
WIRE 432 272 432 208
WIRE 432 272 352 272
WIRE 512 272 432 272
WIRE 880 272 880 208
WIRE 880 272 832 272
WIRE -16 304 -16 272
FLAG -16 304 0
FLAG 512 272 GND_DC
IOPIN 512 272 Out
FLAG 832 64 V_DC
IOPIN 832 64 In
FLAG 512 64 V_DC
IOPIN 512 64 Out
FLAG 832 272 GND_DC
IOPIN 832 272 In
SYMBOL voltage -16 112 R0
WINDOW 123 0 0 Left 0
WINDOW 39 0 0 Left 0
SYMATTR InstName V1
SYMATTR Value SINE(0 325.67 50)
SYMBOL diode 256 144 R180
WINDOW 0 24 64 Left 2
WINDOW 3 24 0 Left 2
SYMATTR InstName D1
SYMATTR Value RFUH20TJ6S
SYMBOL diode 368 144 R180
WINDOW 0 24 64 Left 2
WINDOW 3 24 0 Left 2
SYMATTR InstName D2
SYMATTR Value RFUH20TJ6S
SYMBOL diode 368 256 R180
WINDOW 0 24 64 Left 2
WINDOW 3 24 0 Left 2
SYMATTR InstName D3
SYMATTR Value RFUH20TJ6S
SYMBOL diode 256 256 R180
WINDOW 0 24 64 Left 2
WINDOW 3 24 0 Left 2
SYMATTR InstName D4
SYMATTR Value RFUH20TJ6S
SYMBOL cap 416 144 R0
SYMATTR InstName C1
SYMATTR Value 1m
SYMBOL res 864 112 R0
SYMATTR InstName R1
SYMATTR Value 100
TEXT -50 348 Left 2 !.tran 0 1 0
