Version 4
SHEET 1 1032 680
WIRE 512 64 -16 64
WIRE 880 64 832 64
WIRE -16 128 -16 64
WIRE 880 128 880 64
WIRE -16 272 -16 208
WIRE 512 272 -16 272
WIRE 880 272 880 208
WIRE 880 272 832 272
WIRE -16 304 -16 272
FLAG -16 304 0
FLAG 512 272 GND_DC
IOPIN 512 272 Out
FLAG 832 64 V_DC
IOPIN 832 64 In
FLAG 512 64 V_DC
IOPIN 512 64 Out
FLAG 832 272 GND_DC
IOPIN 832 272 In
SYMBOL voltage -16 112 R0
WINDOW 123 0 0 Left 0
WINDOW 39 0 0 Left 0
SYMATTR InstName V1
SYMATTR Value PWL file=Rectifier_Single_Phase.txt
SYMBOL res 864 112 R0
SYMATTR InstName R1
SYMATTR Value 100
TEXT -48 352 Left 2 !.tran 0 1 0
