Version 4
SHEET 1 1280 680
WIRE 160 64 -384 64
WIRE 352 64 240 64
WIRE 464 64 352 64
WIRE 528 64 464 64
WIRE 608 64 528 64
WIRE 240 80 240 64
WIRE 352 80 352 64
WIRE 464 80 464 64
WIRE 928 80 880 80
WIRE 528 144 528 64
WIRE 928 144 928 80
WIRE -384 160 -384 64
WIRE 160 160 160 64
WIRE 240 160 240 144
WIRE 240 160 160 160
WIRE 352 176 352 144
WIRE 352 176 -240 176
WIRE 464 192 464 144
WIRE 464 192 -112 192
WIRE 240 224 240 160
WIRE 352 224 352 176
WIRE 464 224 464 192
WIRE -240 272 -240 176
WIRE 928 288 928 224
WIRE 928 288 880 288
WIRE 240 304 240 288
WIRE 352 304 352 288
WIRE 352 304 240 304
WIRE 464 304 464 288
WIRE 464 304 352 304
WIRE 528 304 528 208
WIRE 528 304 464 304
WIRE 608 304 528 304
WIRE -384 336 -384 240
WIRE -240 448 -240 352
WIRE -112 448 -112 192
WIRE -112 624 -112 528
FLAG -384 336 0
FLAG 608 304 GND_DC
IOPIN 608 304 Out
FLAG 880 80 V_DC
IOPIN 880 80 In
FLAG 608 64 V_DC
IOPIN 608 64 Out
FLAG 880 288 GND_DC
IOPIN 880 288 In
FLAG -240 448 0
FLAG -112 624 0
SYMBOL voltage -384 144 R0
WINDOW 123 0 0 Left 0
WINDOW 39 0 0 Left 0
SYMATTR InstName V1
SYMATTR Value SINE(0 124 50)
SYMBOL diode 256 144 R180
WINDOW 0 24 64 Left 2
WINDOW 3 24 0 Left 2
SYMATTR InstName D1
SYMATTR Value RFUH20TJ6S
SYMBOL diode 368 144 R180
WINDOW 0 24 64 Left 2
WINDOW 3 24 0 Left 2
SYMATTR InstName D2
SYMATTR Value RFUH20TJ6S
SYMBOL diode 368 288 R180
WINDOW 0 24 64 Left 2
WINDOW 3 24 0 Left 2
SYMATTR InstName D3
SYMATTR Value RFUH20TJ6S
SYMBOL diode 256 288 R180
WINDOW 0 24 64 Left 2
WINDOW 3 24 0 Left 2
SYMATTR InstName D4
SYMATTR Value RFUH20TJ6S
SYMBOL cap 512 144 R0
SYMATTR InstName C1
SYMATTR Value 470µ
SYMBOL res 912 128 R0
SYMATTR InstName R1
SYMATTR Value 16
SYMBOL diode 480 144 R180
WINDOW 0 24 64 Left 2
WINDOW 3 24 0 Left 2
SYMATTR InstName D5
SYMATTR Value RFUH20TJ6S
SYMBOL diode 480 288 R180
WINDOW 0 24 64 Left 2
WINDOW 3 24 0 Left 2
SYMATTR InstName D6
SYMATTR Value RFUH20TJ6S
SYMBOL voltage -240 256 R0
WINDOW 123 0 0 Left 0
WINDOW 39 0 0 Left 0
SYMATTR InstName V2
SYMATTR Value SINE(0 124 50 0 0 120)
SYMBOL voltage -112 432 R0
WINDOW 123 0 0 Left 0
WINDOW 39 0 0 Left 0
SYMATTR InstName V3
SYMATTR Value SINE(0 124 50 0 0 240)
TEXT -416 384 Left 2 !.tran 0 1 0
