Version 4
SHEET 1 1032 868
WIRE 368 432 256 432
WIRE 480 432 368 432
WIRE 544 432 480 432
WIRE 608 432 544 432
WIRE 928 432 848 432
WIRE -80 448 -288 448
WIRE 64 448 -80 448
WIRE 256 464 256 432
WIRE 368 464 368 432
WIRE 480 464 480 432
WIRE -288 480 -288 448
WIRE 64 544 64 448
WIRE 256 544 256 528
WIRE 256 544 64 544
WIRE 544 544 544 432
WIRE 928 544 928 432
WIRE 368 576 368 528
WIRE 368 576 64 576
WIRE -288 608 -288 560
WIRE -288 608 -352 608
WIRE -208 608 -288 608
WIRE -16 608 -128 608
WIRE 64 608 64 576
WIRE 64 608 -16 608
WIRE 480 608 480 528
WIRE 480 608 80 608
WIRE -352 624 -352 608
WIRE -288 656 -288 608
WIRE 256 656 256 544
WIRE 368 656 368 576
WIRE 480 656 480 608
WIRE 256 736 256 720
WIRE 368 736 368 720
WIRE 368 736 256 736
WIRE 480 736 480 720
WIRE 480 736 368 736
WIRE 544 736 544 608
WIRE 544 736 480 736
WIRE 608 736 544 736
WIRE 928 736 928 624
WIRE 928 736 880 736
WIRE -288 768 -288 736
WIRE 0 768 -288 768
WIRE 80 768 80 608
WIRE 80 768 0 768
FLAG -80 448 Va
FLAG -16 608 Vb
FLAG 0 768 Vc
FLAG 608 432 V_dc
IOPIN 608 432 In
FLAG 848 432 V_dc
IOPIN 848 432 In
FLAG 608 736 GND_dc
IOPIN 608 736 In
FLAG 880 736 GND_dc
IOPIN 880 736 In
FLAG -352 624 0
SYMBOL diode 272 528 R180
WINDOW 0 24 64 Left 2
WINDOW 3 42 133 Left 2
SYMATTR InstName D5
SYMATTR Value RFUH20TJ6S
SYMBOL diode 384 528 R180
WINDOW 0 24 64 Left 2
WINDOW 3 -38 130 Left 2
SYMATTR InstName D6
SYMATTR Value RFUH20TJ6S
SYMBOL diode 272 720 R180
WINDOW 0 24 64 Left 2
WINDOW 3 -3 -47 Left 2
SYMATTR InstName D7
SYMATTR Value RFUH20TJ6S
SYMBOL diode 384 720 R180
WINDOW 0 24 64 Left 2
WINDOW 3 -50 -51 Left 2
SYMATTR InstName D8
SYMATTR Value RFUH20TJ6S
SYMBOL diode 496 528 R180
WINDOW 0 24 64 Left 2
WINDOW 3 -99 132 Left 2
SYMATTR InstName D9
SYMATTR Value RFUH20TJ6S
SYMBOL diode 496 720 R180
WINDOW 0 24 64 Left 2
WINDOW 3 -102 -51 Left 2
SYMATTR InstName D10
SYMATTR Value RFUH20TJ6S
SYMBOL voltage -288 464 R0
WINDOW 123 0 0 Left 0
WINDOW 39 0 0 Left 0
SYMATTR InstName V2
SYMATTR Value SINE(0 105 50)
SYMBOL voltage -288 752 R180
WINDOW 123 0 0 Left 0
WINDOW 39 0 0 Left 0
WINDOW 3 -349 31 Left 2
SYMATTR InstName V3
SYMATTR Value SINE(0 105 50 0 0 240)
SYMBOL voltage -112 608 R90
WINDOW 123 0 0 Left 0
WINDOW 39 0 0 Left 0
WINDOW 0 42 15 VRight 2
WINDOW 3 70 -169 VRight 2
SYMATTR InstName V4
SYMATTR Value SINE(0 105 50 0 0 120)
SYMBOL res 912 528 R0
SYMATTR InstName R2
SYMATTR Value 100
SYMBOL cap 528 544 R0
SYMATTR InstName C2
SYMATTR Value 1m
TEXT -48 352 Left 2 !.tran 0 1 0
